*Heading
** Job name: Test_run Model name: Model-1
** Generated by: Abaqus/CAE Student Edition 2018
*Preprint, echo=NO, model=NO, history=NO, contact=NO
**
** PARTS
**
*Part, name=Orphan_mesh
*End Part
**  
**
** ASSEMBLY
**
*Assembly, name=Assembly
**  
*Instance, name=Orphan_Mesh_Assembly, part=Orphan_mesh
*Node
      1,           0.,           0.
      2,           2.,           0.
      3,           4.,           0.
      4,           6.,           0.
      5,           8.,           0.
      6,          10.,           0.
      7,          12.,           0.
      8,          14.,           0.
      9,          16.,           0.
     10,          18.,           0.
     11,          20.,           0.
     12,          22.,           0.
     13,          24.,           0.
     14,          26.,           0.
     15,          28.,           0.
     16,          30.,           0.
     17,           0.,           2.
     18,           2.,           2.
     19,           4.,           2.
     20,           6.,           2.
** ... 236 like lines cut
*Element, type=CPS4
  1,   1,   2,  18,  17
  2,   2,   3,  19,  18
  3,   3,   4,  20,  19
  4,   4,   5,  21,  20
  5,   5,   6,  22,  21
  6,   6,   7,  23,  22
  7,   7,   8,  24,  23
  8,   8,   9,  25,  24
  9,   9,  10,  26,  25
 10,  10,  11,  27,  26
 11,  11,  12,  28,  27
 12,  12,  13,  29,  28
 13,  13,  14,  30,  29
 14,  14,  15,  31,  30
 15,  15,  16,  32,  31
 16,  17,  18,  34,  33
 17,  18,  19,  35,  34
 18,  19,  20,  36,  35
 19,  20,  21,  37,  36
 20,  21,  22,  38,  37
** ... 205 like lines cut
*Elset, elset=Cut
  52,  53,  54,  65,  66,  67,  69,  70,  71,  80,  86,  94,  95, 101, 102, 109
 117, 124, 125, 131, 132, 140, 146, 155, 156, 157, 159, 160, 161, 172, 173, 174
*Elset, elset=Inside
   1,   2,   3,   4,   5,   6,   7,   8,   9,  10,  11,  12,  13,  14,  15,  16
  17,  18,  19,  20,  21,  22,  23,  24,  25,  26,  27,  28,  29,  30,  31,  32
  33,  34,  35,  36,  37,  38,  39,  40,  41,  42,  43,  44,  45,  46,  47,  48
  49,  50,  51,  55,  56,  57,  58,  59,  60,  61,  62,  63,  64,  72,  73,  74
  75,  76,  77,  78,  79,  87,  88,  89,  90,  91,  92,  93, 103, 104, 105, 106
 107, 108, 118, 119, 120, 121, 122, 123, 133, 134, 135, 136, 137, 138, 139, 147
 148, 149, 150, 151, 152, 153, 154, 162, 163, 164, 165, 166, 167, 168, 169, 170
 171, 175, 176, 177, 178, 179, 180, 181, 182, 183, 184, 185, 186, 187, 188, 189
 190, 191, 192, 193, 194, 195, 196, 197, 198, 199, 200, 201, 202, 203, 204, 205
 206, 207, 208, 209, 210, 211, 212, 213, 214, 215, 216, 217, 218, 219, 220, 221
 222, 223, 224, 225
*Elset, elset=Outside
  68,  81,  82,  83,  84,  85,  96,  97,  98,  99, 100, 110, 111, 112, 113, 114
 115, 116, 126, 127, 128, 129, 130, 141, 142, 143, 144, 145, 158
** Section: Inside_Elements
*Solid Section, elset=Inside, material=Alpha-1
1.,
** Section: Cut_Elements
*Solid Section, elset=Cut, material=Alpha-0
1.,
** Section: Outside_Elements
*Solid Section, elset=Outside, material=Alpha-0
1.,
*End Instance
**  
*Nset, nset=BC_X_dirichlet, instance=Orphan_Mesh_Assembly, generate
  1,  16,   1
*Nset, nset=BC_Y_Nuemman, instance=Orphan_Mesh_Assembly, generate
 241,  256,    1
*Nset, nset=BC_Y_dirichlet, instance=Orphan_Mesh_Assembly, generate
   1,  241,   16
*Elset, elset=Elem_BC_Y_Nuemman, instance=Orphan_Mesh_Assembly, generate
 211,  225,    1
*Elset, elset=_Loading_edge_S3, internal, instance=Orphan_Mesh_Assembly, generate
 211,  225,    1
*Surface, type=ELEMENT, name=Loading_edge
_Loading_edge_S3, S3
*End Assembly
** 
** MATERIALS
** 
*Material, name=Alpha-0
*Elastic
 2e-05, 0.3
*Material, name=Alpha-1
*Elastic
200000., 0.3
** ----------------------------------------------------------------
** 
** STEP: Static_load_case
** 
*Step, name=Static_load_case, nlgeom=NO
*Static
1., 1., 1e-05, 1.
** 
** BOUNDARY CONDITIONS
** 
** Name: X_disp_fixed Type: Displacement/Rotation
*Boundary
BC_Y_dirichlet, 1, 1
** Name: Y_disp_fixed Type: Displacement/Rotation
*Boundary
BC_X_dirichlet, 2, 2
** 
** LOADS
** 
** Name: Surface_traction   Type: Surface traction
*Dsload
Loading_edge, TRVEC, 100., 0., 1., 0.
** 
** OUTPUT REQUESTS
** 
*Restart, write, frequency=0
** 
** FIELD OUTPUT: F-Output-1
** 
*Output, field, variable=PRESELECT
** 
** HISTORY OUTPUT: H-Output-1
** 
*Output, history, variable=PRESELECT
*End Step
